SOLUTION_MASTER_SPECIES 
H            H+            -1.0       1.008               1.008
H(0)            H2            0.0       H               
H(1)            H+            -1.       0.0               
E            e-            0.0       0.0               0.0
O            H2O            0.0       O               16.00
O(0)            O2            0.0       O               
O(-2)            H2O            0.0       0.0               
Br            Br-            0       Br               79.904
Br            HOBr            0       HOBr               
Br          OBr-            1.0       OBr               
Br         Br2O            0       Br2O               
Br          Br3-            0       Br3               
Na(+1)          Na+            0       Na               22.9898

SOLUTION_SPECIES
H+ = H+
     log_k	0.000
     -gamma          9.0000    0.0000

e- = e-
     log_k	0.000

H2O = H2O
     log_k	0.000

Na+ = Na+
     log_k	0.000
     -gamma          4.0000    0.0750

Br- = Br-
     log_k           0.000

Br2 = Br2
     log_k           0.000

Br3- = Br3-
     log_k           0.000

Br2O = Br2O
     log_k           0.000

HOBr = HOBr
     log_k           0.000

OBr- = OBr-
     log_k           0.000

HOBr = OBr- + H+
     log_k           -8.70

Br2 + H2O = HOBr + Br- + H+
     log_k           -8.21

Br2 + Br- = Br3-
     log_k           1.21

2 HOBr = Br2O + H2O
     log_k           0.80

H2O = OH- + H+
     log_k         -14.000
     delta_h         13.362  kcal
     -analytic    -283.971    -0.05069842    13323.0    102.24447    -1119669.0
     -gamma          3.5000    0.0000

2 H2O = O2 + 4 H+ + 4 e-
     log_k         -86.08
     delta_h         134.79 kcal

2 H+ + 2 e- = H2
     log_k	-3.15
     delta_h         -1.759 kcal

PHASES
Calcite
	CaCO3 = CO3-2 + Ca+2
	-log_k	-8.48
	-delta_h -2.297 kcal
	-analytic 17.118  -0.046528  -3496 # 0 - 250°C, Ellis, 1959, Plummer and Busenberg, 1982
	-Vm 36.9 cm3/mol # MW (100.09 g/mol) / rho (2.71 g/cm3)
Aragonite
	CaCO3 = CO3-2 + Ca+2
	-log_k	-8.336
	-delta_h -2.589 kcal
	-analytic	-171.9773	-0.077993	2903.293	71.595
	-Vm 34.04
Dolomite
	CaMg(CO3)2 = Ca+2 + Mg+2 + 2 CO3-2
	-log_k	-17.09
	-delta_h  -9.436 kcal
	-analytic  31.283  -0.0898  -6438 #  25°C: Hemingway and Robie, 1994; 50–175°C: Bénézeth et al., 2018, GCA 224, 262-275.
	-Vm 64.5
Siderite
	FeCO3 = Fe+2 + CO3-2
	-log_k	-10.89
	-delta_h  -2.480 kcal
	-Vm 29.2
Rhodochrosite
	MnCO3 = Mn+2 + CO3-2
	-log_k	-11.13
	-delta_h  -1.430 kcal
	-Vm 31.1
Strontianite
	SrCO3 = Sr+2 + CO3-2
	-log_k	-9.271
	-delta_h -0.400 kcal
	-analytic	155.0305	0.0	-7239.594	-56.58638
	-Vm 39.69
Witherite
	BaCO3 = Ba+2 + CO3-2
	-log_k	-8.562
	-delta_h  0.703 kcal
	-analytic	607.642	0.121098	-20011.25	-236.4948
	-Vm 46
Gypsum
	CaSO4:2H2O = Ca+2 + SO4-2 + 2 H2O
	-log_k	-4.58
	-delta_h -0.109 kcal
	-analytic	68.2401	0.0	-3221.51	-25.0627
	-analytical_expression  93.7  5.99E-03  -4e3  -35.019 # better fits the appendix data of Appelo, 2015, AG 55, 62
	-Vm 73.9 # 172.18 / 2.33  (Vm H2O = 13.9 cm3/mol)
Anhydrite
	CaSO4 = Ca+2 + SO4-2
	-log_k	-4.36
	-delta_h -1.710 kcal
	-analytic  84.90  0  -3135.12  -31.79 # 50 - 160oC, 1 - 1e3 atm, anhydrite dissolution, Blount and Dickson, 1973, Am. Mineral. 58, 323.
	-Vm 46.1 # 136.14 / 2.95
Celestite
	SrSO4 = Sr+2 + SO4-2
	-log_k	-6.63
	-delta_h -4.037 kcal
#	-analytic	-14805.9622	-2.4660924	756968.533	5436.3588	-40553604.0
	-analytic  -7.14 6.11e-3  75 0 0 -1.79e-5  # Howell et al., 1992, JCED 37, 464.
	-Vm 46.4
Barite
	BaSO4 = Ba+2 + SO4-2
	-log_k	-9.97
	-delta_h  6.35 kcal
	-analytical_expression  -282.43  -8.972e-2  5822  113.08 # Blount 1977; Templeton, 1960
	-Vm 52.9
Hydroxyapatite
	Ca5(PO4)3OH + 4 H+ = H2O + 3 HPO4-2 + 5 Ca+2
	-log_k	 -3.421
	-delta_h -36.155 kcal
	-Vm 128.9
Fluorite
	CaF2 = Ca+2 + 2 F-
	-log_k	-10.6
	-delta_h   4.69 kcal
	-analytic	66.348	0.0	-4298.2	-25.271
	-Vm 15.7
SiO2(a)
	SiO2 + 2 H2O = H4SiO4
	-log_k	-2.71
	-delta_h  3.340 kcal
	-analytic	-0.26	0.0	-731.0
Chalcedony
	SiO2 + 2 H2O = H4SiO4
	-log_k	-3.55
	-delta_h  4.720 kcal
	-analytic	-0.09	0.0	-1032.0
	-Vm 23.1
Quartz
	SiO2 + 2 H2O = H4SiO4
	-log_k	-3.98
	-delta_h  5.990 kcal
	-analytic	0.41	0.0	-1309.0
	-Vm 22.67
Gibbsite
	Al(OH)3 + 3 H+ = Al+3 + 3 H2O
	-log_k	  8.11
	-delta_h -22.800 kcal
	-Vm 32.22
Al(OH)3(a)
	Al(OH)3 + 3 H+ = Al+3 + 3 H2O
	-log_k	 10.8
	-delta_h -26.500 kcal
Kaolinite
	Al2Si2O5(OH)4 + 6 H+ = H2O + 2 H4SiO4 + 2 Al+3
	-log_k	  7.435
	-delta_h -35.300 kcal
	-Vm 99.35
Albite
	NaAlSi3O8 + 8 H2O = Na+ + Al(OH)4- + 3 H4SiO4
	-log_k	-18.002
	-delta_h 25.896 kcal
	-Vm 101.31
Anorthite
	CaAl2Si2O8 + 8 H2O = Ca+2 + 2 Al(OH)4- + 2 H4SiO4
	-log_k	-19.714
	-delta_h 11.580 kcal
	-Vm 105.05
K-feldspar
	KAlSi3O8 + 8 H2O = K+ + Al(OH)4- + 3 H4SiO4
	-log_k	-20.573
	-delta_h 30.820	kcal
	-Vm 108.15
K-mica
	KAl3Si3O10(OH)2 + 10 H+ = K+ + 3 Al+3 + 3 H4SiO4
	-log_k	12.703
	-delta_h -59.376 kcal
Chlorite(14A)
	Mg5Al2Si3O10(OH)8 + 16H+ = 5Mg+2 + 2Al+3 + 3H4SiO4 + 6H2O
	-log_k	68.38
	-delta_h -151.494 kcal
Ca-Montmorillonite
	Ca0.165Al2.33Si3.67O10(OH)2 + 12 H2O = 0.165Ca+2 + 2.33 Al(OH)4- + 3.67 H4SiO4 + 2 H+
	-log_k	-45.027
	-delta_h 58.373	kcal
	-Vm 156.16
Talc
	Mg3Si4O10(OH)2 + 4 H2O + 6 H+ = 3 Mg+2 + 4 H4SiO4
	-log_k	21.399
	-delta_h -46.352 kcal
	-Vm 68.34
Illite
	K0.6Mg0.25Al2.3Si3.5O10(OH)2 + 11.2H2O = 0.6K+ + 0.25Mg+2 + 2.3Al(OH)4- + 3.5H4SiO4 + 1.2H+
	-log_k	-40.267
	-delta_h 54.684 kcal
	-Vm 141.48
Chrysotile
	Mg3Si2O5(OH)4 + 6 H+ = H2O + 2 H4SiO4 + 3 Mg+2
	-log_k	32.2
	-delta_h -46.800 kcal
	-analytic	13.248	0.0	10217.1	-6.1894
	-Vm  106.5808  # 277.11/2.60
Sepiolite
	Mg2Si3O7.5OH:3H2O + 4 H+ + 0.5H2O = 2 Mg+2 + 3 H4SiO4
	-log_k	15.760
	-delta_h -10.700 kcal
	-Vm 143.765
Sepiolite(d)
	Mg2Si3O7.5OH:3H2O + 4 H+ + 0.5H2O = 2 Mg+2 + 3 H4SiO4
	-log_k	18.66
Hematite
	Fe2O3 + 6 H+ = 2 Fe+3 + 3 H2O
	-log_k	-4.008
	-delta_h -30.845 kcal
	-Vm 30.39
Goethite
	FeOOH + 3 H+ = Fe+3 + 2 H2O
	-log_k	-1.0
	-delta_h	 -14.48 kcal
	-Vm 20.84
Fe(OH)3(a)
	Fe(OH)3 + 3 H+ = Fe+3 + 3 H2O
	-log_k	4.891
Pyrite
	FeS2 + 2 H+ + 2 e- = Fe+2 + 2 HS-
	-log_k	-18.479
	-delta_h 11.300 kcal
	-Vm 23.48
FeS(ppt)
	FeS + H+ = Fe+2 + HS-
	-log_k	-3.915
Mackinawite
	FeS + H+ = Fe+2 + HS-
	-log_k	-4.648
	-Vm 20.45
Sulfur
	S + 2H+ + 2e- = H2S
	-log_k	4.882
	-delta_h -9.5 kcal
Vivianite
	Fe3(PO4)2:8H2O = 3 Fe+2 + 2 PO4-3 + 8 H2O
	-log_k	-36.0
Pyrolusite	# H2O added for surface calc's
	MnO2:H2O + 4 H+ + 2 e- = Mn+2 + 3 H2O
	-log_k	41.38
	-delta_h -65.110 kcal
Hausmannite
	Mn3O4 + 8 H+ + 2 e- = 3 Mn+2 + 4 H2O
	-log_k	61.03
	-delta_h -100.640 kcal
Manganite
	MnOOH + 3 H+ + e- = Mn+2 + 2 H2O
	-log_k	25.34
Pyrochroite
	Mn(OH)2 + 2 H+ = Mn+2 + 2 H2O
	-log_k	15.2
Halite
	NaCl  =  Cl- + Na+
	log_k	  1.570
	-delta_h  1.37
	#-analytic -713.4616   -.1201241   37302.21    262.4583    -2106915.
	-Vm 27.1
Sylvite
	KCl  = K+ + Cl-
	log_k	   0.900
	-delta_h  8.5
	# -analytic     3.984     0.0	 -919.55
	Vm 37.5
# Gases...
CO2(g)
	CO2 = CO2
	-log_k	-1.468
	-delta_h -4.776 kcal
	-analytic   10.5624  -2.3547e-2  -3972.8  0  5.8746e5  1.9194e-5
	-T_c  304.2 # critical T, K
	-P_c   72.86 # critical P, atm
	-Omega 0.225 # acentric factor
H2O(g)
	H2O = H2O
	-log_k  1.506; delta_h -44.03 kJ
	-T_c  647.3
	-P_c  217.60
	-Omega 0.344
	-analytic   -16.5066 -2.0013E-3  2710.7  3.7646  0 2.24E-6
O2(g)
	O2 = O2
	-log_k   -2.8983
	-analytic -7.5001 7.8981e-3 0.0 0.0 2.0027e5
	-T_c  154.6; -P_c   49.80; -Omega 0.021
H2(g)
	H2 = H2
	-log_k	   -3.1050
	-delta_h -4.184  kJ
	-analytic   -9.3114    4.6473e-3   -49.335    1.4341    1.2815e5
	-T_c  33.2; -P_c   12.80; -Omega -0.225
N2(g)
	N2 = N2
	-log_k		 -3.1864
	-analytic -58.453 1.818e-3  3199  17.909 -27460
	-T_c  126.2; -P_c   33.50; -Omega 0.039
H2S(g)
	H2S  =  H+ + HS-
	log_k	   -7.93
	-delta_h   9.1
	-analytic -45.07  -0.02418  0  17.9205 # H2S solubilities, 0 - 300°C, 1 - 987 atm, Jiang et al., 2020, CG 555, 119816
	-T_c  373.2; -P_c  88.20; -Omega 0.1
CH4(g)
	CH4 = CH4
	-log_k -2.8
	-analytic   10.44  -7.65e-3  -6669  0  1.014e6 # CH4 solubilities 25 - 100°C
	-T_c  190.6 ; -P_c   45.40 ; -Omega 0.008
#Amm(g)
#	Amm = Amm
NH3(g)
	NH3 = NH3	
	-log_k	   1.7966
	-analytic -18.758 3.3670e-4 2.5113e3 4.8619 39.192
	-T_c  405.6; -P_c   111.3; -Omega 0.25
# redox-uncoupled gases
Oxg(g)
	Oxg = Oxg
	-analytic -7.5001 7.8981e-3 0.0 0.0 2.0027e5
	-T_c  154.6 ; -P_c   49.80 ; -Omega 0.021
Hdg(g)
	Hdg = Hdg
	-analytic   -9.3114    4.6473e-3   -49.335    1.4341    1.2815e5
	-T_c  33.2 ; -P_c   12.80 ; -Omega -0.225
Ntg(g)
	Ntg = Ntg
	-analytic -58.453 1.81800e-3  3199  17.909 -27460
	T_c  126.2 ; -P_c   33.50 ; -Omega 0.039
Mtg(g)
	Mtg = Mtg
	-log_k -2.8
	-analytic   10.44  -7.65e-3  -6669  0  1.014e6 # CH4 solubilities 25 - 100°C
	-T_c  190.6 ; -P_c   45.40 ; -Omega 0.008
H2Sg(g)
	H2Sg  =  H+ + HSg-
	log_k	   -7.93
	-delta_h   9.1
	-analytic -45.07  -0.02418  0  17.9205 # H2S solubilities, 0 - 300°C, 1 - 987 atm, Jiang et al., 2020, CG 555, 119816
	-T_c  373.2 ; -P_c  88.20 ; -Omega 0.1
Melanterite
	FeSO4:7H2O = 7 H2O + Fe+2 + SO4-2
	-log_k	-2.209
	-delta_h 4.910	kcal
	-analytic	1.447	-0.004153	0.0	0.0	-214949.0
Alunite
	KAl3(SO4)2(OH)6 + 6 H+ = K+ + 3 Al+3 + 2 SO4-2 + 6H2O
	-log_k	-1.4
	-delta_h -50.250 kcal
Jarosite-K
	KFe3(SO4)2(OH)6 + 6 H+ = 3 Fe+3 + 6 H2O + K+ + 2 SO4-2
	-log_k	-9.21
	-delta_h -31.280 kcal
Zn(OH)2(e)
	Zn(OH)2 + 2 H+ = Zn+2 + 2 H2O
	-log_k	11.5
Smithsonite
	ZnCO3 = Zn+2 + CO3-2
	-log_k	-10.0
	-delta_h -4.36	kcal
Sphalerite
	ZnS + H+ = Zn+2 + HS-
	-log_k	-11.618
	-delta_h 8.250	kcal
Willemite	289
	Zn2SiO4 + 4H+ = 2Zn+2 + H4SiO4
	-log_k	15.33
	-delta_h -33.37	kcal
Cd(OH)2
	Cd(OH)2 + 2 H+ = Cd+2 + 2 H2O
	-log_k	13.65
Otavite	315
	CdCO3 = Cd+2 + CO3-2
	-log_k	-12.1
	-delta_h -0.019	kcal
CdSiO3	328
	CdSiO3 + H2O + 2H+ = Cd+2 + H4SiO4
	-log_k	9.06
	-delta_h -16.63	kcal
CdSO4	329
	CdSO4 = Cd+2 + SO4-2
	-log_k	-0.1
	-delta_h -14.74	kcal
Cerussite	365
	PbCO3 = Pb+2 + CO3-2
	-log_k	-13.13
	-delta_h 4.86	kcal
Anglesite	384
	PbSO4 = Pb+2 + SO4-2
	-log_k	-7.79
	-delta_h 2.15	kcal
Pb(OH)2	389
	Pb(OH)2 + 2H+ = Pb+2 + 2H2O
	-log_k	8.15
	-delta_h -13.99	kcal

SURFACE_MASTER_SPECIES
	Hfo_s	Hfo_sOH
	Hfo_w	Hfo_wOH

SURFACE_SPECIES

	Hfo_sOH = Hfo_sOH
	-log_k	0

	Hfo_sOH	+ H+ = Hfo_sOH2+
	-log_k	7.29	# = pKa1,int

	Hfo_sOH = Hfo_sO- + H+
	-log_k	-8.93	# = -pKa2,int
